ethanol
 OpenBabel09302616033D

  9  8  0  0  0  0  0  0  0  0999 V2000
    0.9119   -0.0505   -0.0220 C   0  0  0  0  0  0  0  0  0  0  0  0
    0.4141   -1.4450    0.2971 C   0  0  0  0  0  0  0  0  0  0  0  0
    0.8797   -1.8448    1.5779 O   0  0  0  0  0  0  0  0  0  0  0  0
    0.5695    0.6629    0.7347 H   0  0  0  0  0  0  0  0  0  0  0  0
    0.5550    0.2761   -1.0028 H   0  0  0  0  0  0  0  0  0  0  0  0
    2.0064   -0.0194   -0.0168 H   0  0  0  0  0  0  0  0  0  0  0  0
   -0.6795   -1.4678    0.3092 H   0  0  0  0  0  0  0  0  0  0  0  0
    0.7660   -2.1674   -0.4456 H   0  0  0  0  0  0  0  0  0  0  0  0
    1.8517   -1.8332    1.5532 H   0  0  0  0  0  0  0  0  0  0  0  0
  1  2  1  0  0  0  0
  1  4  1  0  0  0  0
  1  5  1  0  0  0  0
  1  6  1  0  0  0  0
  2  3  1  0  0  0  0
  2  7  1  0  0  0  0
  2  8  1  0  0  0  0
  3  9  1  0  0  0  0
M  END
>  <Energy>
-1.336253

$$$$
aspirin
 OpenBabel09302616033D

 21 21  0  0  0  0  0  0  0  0999 V2000
    1.1250   -0.0926    0.1312 C   0  0  0  0  0  0  0  0  0  0  0  0
    0.6720   -0.1865    1.5592 C   0  0  0  0  0  0  0  0  0  0  0  0
    0.5442    0.7752    2.3058 O   0  0  0  0  0  0  0  0  0  0  0  0
    0.4593   -1.5224    1.8750 O   0  0  0  0  0  0  0  0  0  0  0  0
    0.1278   -1.7241    3.2178 C   0  0  0  0  0  0  0  0  0  0  0  0
   -1.2330   -1.6879    3.5473 C   0  0  0  0  0  0  0  0  0  0  0  0
   -1.6398   -1.9716    4.8503 C   0  0  0  0  0  0  0  0  0  0  0  0
   -0.6930   -2.2999    5.8187 C   0  0  0  0  0  0  0  0  0  0  0  0
    0.6633   -2.3472    5.4838 C   0  0  0  0  0  0  0  0  0  0  0  0
    1.0916   -2.0633    4.1761 C   0  0  0  0  0  0  0  0  0  0  0  0
    2.5473   -2.1777    3.9124 C   0  0  0  0  0  0  0  0  0  0  0  0
    3.3629   -2.6452    4.6896 O   0  0  0  0  0  0  0  0  0  0  0  0
    2.9473   -1.6973    2.7237 O   0  0  0  0  0  0  0  0  0  0  0  0
    0.9616    0.9249   -0.2336 H   0  0  0  0  0  0  0  0  0  0  0  0
    0.5399   -0.7711   -0.4961 H   0  0  0  0  0  0  0  0  0  0  0  0
    2.1872   -0.3383    0.0664 H   0  0  0  0  0  0  0  0  0  0  0  0
   -1.9737   -1.4419    2.7916 H   0  0  0  0  0  0  0  0  0  0  0  0
   -2.6955   -1.9437    5.1093 H   0  0  0  0  0  0  0  0  0  0  0  0
   -1.0088   -2.5257    6.8347 H   0  0  0  0  0  0  0  0  0  0  0  0
    1.3880   -2.6160    6.2511 H   0  0  0  0  0  0  0  0  0  0  0  0
    3.9185   -1.8303    2.7401 H   0  0  0  0  0  0  0  0  0  0  0  0
  1  2  1  0  0  0  0
  1 14  1  0  0  0  0
  1 15  1  0  0  0  0
  1 16  1  0  0  0  0
  2  3  2  0  0  0  0
  2  4  1  0  0  0  0
  4  5  1  0  0  0  0
  5  6  1  0  0  0  0
  5 10  2  0  0  0  0
  6  7  2  0  0  0  0
  6 17  1  0  0  0  0
  7  8  1  0  0  0  0
  7 18  1  0  0  0  0
  8  9  2  0  0  0  0
  8 19  1  0  0  0  0
  9 10  1  0  0  0  0
  9 20  1  0  0  0  0
 10 11  1  0  0  0  0
 11 12  2  0  0  0  0
 11 13  1  0  0  0  0
 13 21  1  0  0  0  0
M  END
>  <Energy>
21.111465

$$$$
